37
symmetry c1
Ca      82.521488000    119.456307000     54.325943000
C       81.943596000    119.254859000     61.081551000
C       83.048982000    119.370772000     60.243129000
H       83.310329000    120.321820000     59.772948000
H       81.332622000    120.125281000     61.294585000
C       81.593909000    118.021458000     61.619942000
H       80.714550000    117.883777000     62.236341000
C       82.390075000    116.929569000     61.309027000
N       82.008802000    115.611079000     61.815301000
O       82.591758000    114.644470000     61.356353000
O       81.148085000    115.553082000     62.667422000
C       83.513666000    117.012912000     60.501269000
H       84.088464000    116.122175000     60.282442000
C       83.836415000    118.249545000     59.959865000
C       84.912151000    118.372096000     58.942520000
N       84.445747000    118.237406000     57.625947000
C       85.040400000    118.863049000     56.572087000
O       84.458810000    118.985747000     55.481661000
H       83.510389000    117.846145000     57.493049000
C       86.190539000    118.677007000     59.151125000
H       86.567490000    118.862067000     60.148438000
C       87.071101000    118.855554000     57.949365000
H       87.849149000    119.595638000     58.149534000
H       87.572637000    117.920938000     57.647475000
N       86.282787000    119.361942000     56.813499000
C       87.053331000    119.855749000     55.720653000
C       87.553908000    121.150498000     55.740919000
H       87.258556000    121.815846000     56.545753000
C       88.401291000    121.578555000     54.723728000
H       88.831228000    122.572786000     54.765030000
C       88.698835000    120.720498000     53.668208000
H       89.355580000    121.052261000     52.869622000
C       88.186349000    119.427971000     53.636266000
H       88.460549000    118.733301000     52.847928000
C       87.392665000    118.973066000     54.687874000
O       86.979528000    117.689580000     54.805347000
H       86.605936000    117.373977000     53.958952000



